Version 4
SHEET 1 1388 680
WIRE 528 -400 128 -400
WIRE 640 -400 528 -400
WIRE 688 -400 640 -400
WIRE 720 -400 688 -400
WIRE 432 -352 256 -352
WIRE 480 -352 432 -352
WIRE 480 -336 480 -352
WIRE 128 -320 128 -400
WIRE 256 -320 256 -352
WIRE 432 -320 432 -352
WIRE 16 -256 -80 -256
WIRE 432 -256 368 -256
WIRE 640 -240 640 -400
WIRE -160 -160 -240 -160
WIRE 16 -160 -160 -160
WIRE 592 -160 368 -160
WIRE 432 -112 432 -256
WIRE 480 -112 432 -112
WIRE 640 -112 640 -144
WIRE 640 -112 544 -112
WIRE -160 -64 -160 -160
WIRE 16 -64 -32 -64
WIRE 640 -64 640 -112
WIRE 640 -64 368 -64
WIRE 736 -64 640 -64
WIRE 976 -64 896 -64
WIRE 1024 -64 976 -64
WIRE 1104 -64 1024 -64
WIRE 1184 -64 1104 -64
WIRE 640 -48 640 -64
WIRE 16 32 -80 32
WIRE 592 32 368 32
WIRE -160 128 -160 16
WIRE 16 128 -160 128
WIRE 816 128 816 -64
WIRE 816 128 368 128
WIRE 976 208 976 -64
WIRE 16 224 -96 224
WIRE 896 224 896 -64
WIRE 896 224 368 224
WIRE 16 320 -32 320
WIRE 976 320 976 288
WIRE 976 320 368 320
FLAG -32 16 0
FLAG -32 464 0
FLAG -240 -96 0
FLAG -160 208 0
FLAG -96 288 0
FLAG 528 -336 0
FLAG 688 -336 0
FLAG 720 -400 VIN
IOPIN 720 -400 In
FLAG 960 -288 0
FLAG 960 -368 VIN
FLAG 192 384 0
FLAG 480 -272 0
FLAG 640 48 0
FLAG 1024 0 0
FLAG 1104 -64 VOUT
IOPIN 1104 -64 Out
FLAG 976 400 0
SYMBOL PowerProducts\\LT3741 192 32 R0
SYMATTR InstName U1
SYMBOL res -48 -80 R0
SYMATTR InstName R1
SYMATTR Value 82.5k
SYMBOL res -48 304 R0
SYMATTR InstName R2
SYMATTR Value 39.2k
SYMBOL cap -48 400 R0
SYMATTR InstName C1
SYMATTR Value 5.6n
SYMBOL cap -256 -160 R0
SYMATTR InstName C2
SYMATTR Value 10n
SYMBOL res -176 112 R0
SYMATTR InstName RNTC
SYMATTR Value 470k
SYMBOL res -176 -80 R0
SYMATTR InstName R4
SYMATTR Value 45.3k
SYMBOL cap -112 224 R0
SYMATTR InstName C3
SYMATTR Value 10n
SYMBOL cap 512 -400 R0
SYMATTR InstName C4
SYMATTR Value 1µ
SYMBOL cap 672 -400 R0
SYMATTR InstName C5
SYMATTR Value 100µ
SYMBOL voltage 960 -384 R0
WINDOW 123 0 0 Left 0
WINDOW 39 0 0 Left 0
SYMATTR InstName V1
SYMATTR Value 18
SYMBOL nmos 592 -240 R0
SYMATTR InstName M1
SYMBOL cap 544 -128 R90
WINDOW 0 0 32 VBottom 2
WINDOW 3 32 32 VTop 2
SYMATTR InstName C6
SYMATTR Value 220n
SYMBOL zener 416 -320 R0
SYMATTR InstName D1
SYMBOL cap 464 -336 R0
SYMATTR InstName C7
SYMATTR Value 22µ
SYMBOL nmos 592 -48 R0
SYMATTR InstName M2
SYMBOL ind 832 -80 R90
WINDOW 0 5 56 VBottom 2
WINDOW 3 32 56 VTop 2
SYMATTR InstName L1
SYMATTR Value 2.2µ
SYMBOL res 912 -80 R90
WINDOW 0 0 56 VBottom 2
WINDOW 3 32 56 VTop 2
SYMATTR InstName R5
SYMATTR Value 2.5m
SYMBOL res 960 192 R0
SYMATTR InstName R6
SYMATTR Value 88.7k
SYMBOL cap 1008 -64 R0
SYMATTR InstName C8
SYMATTR Value 150µ
SYMBOL res 960 304 R0
SYMATTR InstName R7
SYMATTR Value 12.1k
TEXT -260 488 Left 2 !.tran 0 2 1.5
